3
# water molecule from ice Ih simulation
O         -1.646191926912888803E+01  -1.644338952551677480E+01  -1.093606051977958948E+01
H         -1.464385337239644969E+01  -1.563631787498893644E+01  -1.085921128069154662E+01
H         -1.717986700768845765E+01  -1.500395189590500777E+01  -1.043271670836988463E+01
3  
# water molecule from ice Ih simulation
O         -1.635914027363723378E+01  -1.644222863388658240E+01  -1.107805804783941284E+01
H         -1.497818328922387998E+01  -1.557710248840382228E+01  -1.040944659545130158E+01
H         -1.793739111345688286E+01  -1.579603876890602621E+01  -1.010056151349935938E+01
3
# water molecule from ice Ih simulation
O         -1.649968949857384359E+01  -1.652453131753217619E+01  -1.109709712829504724E+01
H         -1.493530074538947439E+01  -1.539783683372749223E+01  -1.047618375953241987E+01
H         -1.820583525384099133E+01  -1.572551454161358642E+01  -1.045740968412136773E+01
3
# water molecule from ice Ih simulation
O         -1.641118486316817382E+01  -1.623848385688641471E+01  -1.104548394600359629E+01
H         -1.472999338193151075E+01  -1.552986538024418905E+01  -1.045255288304251096E+01
H         -1.709563746210120172E+01  -1.485167080894235347E+01  -1.060611072326759441E+01
