12
CELL(GENH): 8.48487 0.0 0.0 4.202740172598392 7.325051744402731 0.0 0.0 0.0 13.8498
O       4.36841000       2.36204000       7.70142000 
H       2.87604000       3.21830000       7.07525000 
H       4.24213000       2.43450000       9.52553000 
O       4.07924000       2.52795000      12.85590000 
H       4.13396000       0.81597300      13.50110000 
H       5.58486000       3.34477000      13.50110000 
O       8.32836100       4.95824000       0.70800400 
H       9.82918000       4.09714000       0.11134900 
H       8.44490010       4.89136000       2.53320000 
O       8.66476700       4.76518000       5.86955000 
H       7.12517000       4.11540000       6.60709000 
H       8.44871280       6.42228000       6.60710000 
